#======================================================================

# CRYSTAL DATA

#----------------------------------------------------------------------

data_VESTA_phase_1


_chemical_name_common                  'MoO3_alpha                            '
_cell_length_a                         3.90883
_cell_length_b                         14.01252
_cell_length_c                         3.71087
_cell_angle_alpha                      90
_cell_angle_beta                       90
_cell_angle_gamma                      90
_space_group_name_H-M_alt              'P 1'
_space_group_IT_number                 1

loop_
_space_group_symop_operation_xyz
   'x, y, z'

loop_
   _atom_site_label
   _atom_site_occupancy
   _atom_site_fract_x
   _atom_site_fract_y
   _atom_site_fract_z
   _atom_site_adp_type
   _atom_site_B_iso_or_equiv
   _atom_site_type_symbol
   Mo1        1.0     0.072254      0.104278      0.250000     Biso  1.000000 Mo
   Mo2        1.0     0.927746      0.895722      0.750000     Biso  1.000000 Mo
   Mo3        1.0     0.572254      0.395722      0.750000     Biso  1.000000 Mo
   Mo4        1.0     0.427746      0.604278      0.250000     Biso  1.000000 Mo
   O1         1.0     0.499661      0.433711      0.250000     Biso  1.000000 O
   O2         1.0     0.500339      0.566289      0.750000     Biso  1.000000 O
   O3         1.0     0.999661      0.066289      0.750000     Biso  1.000000 O
   O4         1.0     0.000339      0.933711      0.250000     Biso  1.000000 O
   O5         1.0     0.520435      0.087812      0.250000     Biso  1.000000 O
   O6         1.0     0.479565      0.912188      0.750000     Biso  1.000000 O
   O7         1.0     0.020435      0.412188      0.750000     Biso  1.000000 O
   O8         1.0     0.979565      0.587812      0.250000     Biso  1.000000 O
   O9         1.0     0.034374      0.224218      0.250000     Biso  1.000000 O
   O10        1.0     0.965626      0.775782      0.750000     Biso  1.000000 O
   O11        1.0     0.534374      0.275782      0.750000     Biso  1.000000 O
   O12        1.0     0.465626      0.724218      0.250000     Biso  1.000000 O
